43248_16a_229
  PyMOL3.1          3D                             0

 47 49  0  0  0  0  0  0  0  0999 V2000
   11.0406   10.8573   -1.3914 O   0  0  0  0  0  0  0  0  0  0  0  0
   10.5590   10.7931   -0.2840 C   0  0  0  0  0  0  0  0  0  0  0  0
   11.4014   11.0154    0.9415 C   0  0  0  0  0  0  0  0  0  0  0  0
   12.8579   10.5960    0.7325 C   0  0  0  0  0  0  0  0  0  0  0  0
   13.7295   11.7342    0.2031 C   0  0  0  0  0  0  0  0  0  0  0  0
   13.7675   12.9362    1.1459 C   0  0  0  0  0  0  0  0  0  0  0  0
   15.0499   13.6519    1.0374 N   0  0  0  0  0  0  0  0  0  0  0  0
   15.3421   14.6876    0.1820 C   0  0  0  0  0  0  0  0  0  0  0  0
   16.6358   15.0758    0.3887 C   0  0  0  0  0  0  0  0  0  0  0  0
   17.1493   14.2432    1.4146 C   0  0  0  0  0  0  0  0  0  0  0  0
   16.1526   13.3757    1.7948 C   0  0  0  0  0  0  0  0  0  0  0  0
   16.3853   12.4359    2.7943 C   0  0  0  0  0  0  0  0  0  0  0  0
   17.6212   12.3558    3.4272 C   0  0  0  0  0  0  0  0  0  0  0  0
   18.6325   13.2324    3.0476 C   0  0  0  0  0  0  0  0  0  0  0  0
   18.3879   14.1672    2.0467 C   0  0  0  0  0  0  0  0  0  0  0  0
   19.3954   15.0004    1.7078 O   0  0  0  0  0  0  0  0  0  0  0  0
    9.1325   10.4941   -0.1118 C   0  0  0  0  0  0  0  0  0  0  0  0
    8.5917   10.4207    1.1145 C   0  0  0  0  0  0  0  0  0  0  0  0
    7.1781   10.1226    1.2353 C   0  0  0  0  0  0  0  0  0  0  0  0
    6.3107   10.5236    0.2249 C   0  0  0  0  0  0  0  0  0  0  0  0
    4.9565   10.2334    0.3496 C   0  0  0  0  0  0  0  0  0  0  0  0
    4.1005   10.6158   -0.6226 O   0  0  0  0  0  0  0  0  0  0  0  0
    4.4818    9.5542    1.4672 C   0  0  0  0  0  0  0  0  0  0  0  0
    3.1639    9.2816    1.5702 O   0  0  0  0  0  0  0  0  0  0  0  0
    5.3606    9.1588    2.4704 C   0  0  0  0  0  0  0  0  0  0  0  0
    6.7179    9.4426    2.3583 C   0  0  0  0  0  0  0  0  0  0  0  0
   11.4269   12.0776    1.1867 H   0  0  0  0  0  0  0  0  0  0  0  0
   10.9681   10.4883    1.7894 H   0  0  0  0  0  0  0  0  0  0  0  0
   12.9189    9.7278    0.0763 H   0  0  0  0  0  0  0  0  0  0  0  0
   13.2760   10.1844    1.6510 H   0  0  0  0  0  0  0  0  0  0  0  0
   13.4048   12.0360   -0.7932 H   0  0  0  0  0  0  0  0  0  0  0  0
   14.7381   11.3812   -0.0122 H   0  0  0  0  0  0  0  0  0  0  0  0
   13.6404   12.5745    2.1666 H   0  0  0  0  0  0  0  0  0  0  0  0
   12.9494   13.6228    0.9291 H   0  0  0  0  0  0  0  0  0  0  0  0
   14.7120   15.0905   -0.4818 H   0  0  0  0  0  0  0  0  0  0  0  0
   17.1249   15.8048   -0.0903 H   0  0  0  0  0  0  0  0  0  0  0  0
   15.6534   11.8091    3.0614 H   0  0  0  0  0  0  0  0  0  0  0  0
   17.7806   11.6778    4.1449 H   0  0  0  0  0  0  0  0  0  0  0  0
   19.5280   13.1910    3.4906 H   0  0  0  0  0  0  0  0  0  0  0  0
   20.2448   14.9256    2.1625 H   0  0  0  0  0  0  0  0  0  0  0  0
    8.5781   10.3409   -1.0265 H   0  0  0  0  0  0  0  0  0  0  0  0
    9.2734   10.5960    1.9337 H   0  0  0  0  0  0  0  0  0  0  0  0
    6.6547   11.0119   -0.5771 H   0  0  0  0  0  0  0  0  0  0  0  0
    3.1611   10.4123   -0.5319 H   0  0  0  0  0  0  0  0  0  0  0  0
    2.5658    9.5629    0.8648 H   0  0  0  0  0  0  0  0  0  0  0  0
    5.0166    8.6705    3.2723 H   0  0  0  0  0  0  0  0  0  0  0  0
    7.3549    9.1612    3.0760 H   0  0  0  0  0  0  0  0  0  0  0  0
  1  2  2  0  0  0  0
  2  3  1  0  0  0  0
  2 17  1  0  0  0  0
  3  4  1  0  0  0  0
  3 27  1  0  0  0  0
  3 28  1  0  0  0  0
  4  5  1  0  0  0  0
  4 29  1  0  0  0  0
  4 30  1  0  0  0  0
  5  6  1  0  0  0  0
  5 31  1  0  0  0  0
  5 32  1  0  0  0  0
  6  7  1  0  0  0  0
  6 33  1  0  0  0  0
  6 34  1  0  0  0  0
  7  8  1  0  0  0  0
  7 11  1  0  0  0  0
  8  9  2  0  0  0  0
  8 35  1  0  0  0  0
  9 10  1  0  0  0  0
  9 36  1  0  0  0  0
 10 11  2  0  0  0  0
 10 15  1  0  0  0  0
 11 12  1  0  0  0  0
 12 13  2  0  0  0  0
 12 37  1  0  0  0  0
 13 14  1  0  0  0  0
 13 38  1  0  0  0  0
 14 15  2  0  0  0  0
 14 39  1  0  0  0  0
 15 16  1  0  0  0  0
 16 40  1  0  0  0  0
 17 18  2  0  0  0  0
 17 41  1  0  0  0  0
 18 19  1  0  0  0  0
 18 42  1  0  0  0  0
 19 20  2  0  0  0  0
 19 26  1  0  0  0  0
 20 21  1  0  0  0  0
 20 43  1  0  0  0  0
 21 22  1  0  0  0  0
 21 23  2  0  0  0  0
 22 44  1  0  0  0  0
 23 24  1  0  0  0  0
 23 25  1  0  0  0  0
 24 45  1  0  0  0  0
 25 26  2  0  0  0  0
 25 46  1  0  0  0  0
 26 47  1  0  0  0  0
M  END
>  <SYBYL.NAME>
43248_16a

>  <LEADIT.VERSION>
2.3.2   (25.08.17)

>  <BIOSOLVEIT.DOCKING_EXTREG>


>  <229>


>  <BIOSOLVEIT.DOCKING_TARGET_NAME>
43248_16a

>  <BIOSOLVEIT.DOCKING_POSE_NO>
229

>  <BIOSOLVEIT.DOCKING_E_TOTAL>
-13.301000

>  <BIOSOLVEIT.DOCKING_E_MATCH>
-21.919000

>  <BIOSOLVEIT.DOCKING_E_LIPO>
-10.268000

>  <BIOSOLVEIT.DOCKING_E_AMBIG>
-5.517000

>  <BIOSOLVEIT.DOCKING_E_CLASH>
7.804000

>  <BIOSOLVEIT.DOCKING_E_ROT>
11.200000

>  <BIOSOLVEIT.DOCKING_E_PPI>
0.000000

>  <BIOSOLVEIT.DOCKING_E_PLP>
0.000000

>  <BIOSOLVEIT.DOCKING_E_SAS>
0.000000

>  <BIOSOLVEIT.DOCKING_RMS>
10.575000

>  <BIOSOLVEIT.DOCKING_AVG_VOLUME>
0.555000

>  <BIOSOLVEIT.DOCKING_MAX_VOLUME>
2.589000

>  <BIOSOLVEIT.DOCKING_MATCHLIST>
 22;  16.64;  15.08;   0.39;  21.13;  14.99;  -1.27; -0.11; -0.11
 14;  18.63;  13.23;   3.05;  21.13;  14.99;  -1.27; -0.01; -0.01
  8;  17.39;  13.30;   2.42;  21.36;  14.02;  -0.30; -0.50; -0.50
  6;   5.84;   9.84;   1.35;   3.66;   7.36;  -2.09; -0.70; -0.70
  6;   5.84;   9.84;   1.35;   5.73;   8.32;  -3.27; -0.70; -0.70
  6;   5.84;   9.84;   1.35;   2.63;  12.95;   1.91; -0.70; -0.70
  6;   5.84;   9.84;   1.35;   4.60;  13.87;   0.81; -0.70; -0.70
  6;   5.84;   9.84;   1.35;   4.42;  13.22;   4.88; -0.70; -0.70
  6;   5.84;   9.84;   1.35;   7.48;   5.94;   3.61; -0.70; -0.70
  4;  19.40;  15.00;   1.71;  19.24;  17.25;   0.78; -1.97; -1.97
  8;  17.39;  13.30;   2.42;  20.12;  14.63;  -0.40; -0.70; -0.70
 22;  15.84;  14.36;   0.71;  20.12;  14.63;  -0.40; -0.70; -0.70
 22;  15.84;  14.36;   0.71;  13.42;  17.78;   0.33; -0.66; -0.66
  2;   3.16;  10.41;  -0.53;   1.47;  10.10;  -0.55; -4.70; -4.70
  3;   2.57;   9.56;   0.86;   1.47;  10.10;  -0.55; -4.70; -4.70
  3;   3.16;   9.28;   1.57;   1.81;   8.83;   2.95; -3.70; -3.70
  6;   5.84;   9.84;   1.35;   8.47;  14.13;   1.74; -0.70; -0.70


>  <BIOSOLVEIT.POSEVIEW_INTERACTIONS>
  19.24;  17.25;   0.78; -1.97;    4;  170;1
   1.47;  10.10;  -0.55; -4.70;   27;  714;0
   1.47;  10.10;  -0.55; -4.70;   28;  714;0
   1.81;   8.83;   2.95; -3.70;    3;  727;1


>  <BIOSOLVEIT.POSEVIEW_HYDROPHOBIC_CONTACTS>
 26; 1217;ASP478
 26;  315;LYS368
 25; 1217;ASP478
 25;  315;LYS368
 24;  196;ALA353
 24;  314;LYS368
 24;  315;LYS368
 23;  152;LYS347
 23;  149;GLY346
 23;  158;LYS347
 23;  186;GLN352
 23;  315;LYS368
 22;  161;GLY348
 22;  162;GLY348
 22;  171;PHE350
 22;  179;PHE350
 22;  173;PHE350
 22;  183;GLY351
 22;  182;GLY351
 22;  158;LYS347
 21;  174;PHE350
 21;  171;PHE350
 21;  172;PHE350
 21;  179;PHE350
 21;  182;GLY351
 21;  158;LYS347
 21;  186;GLN352
 21;  315;LYS368
 20;  196;ALA353
 20;  314;LYS368
 20;  315;LYS368
 19; 1132;LEU467
 18;  196;ALA353
 18;  314;LYS368
 18;  315;LYS368
 17;  161;GLY348
 17;  158;LYS347
 16; 1131;LEU467
 15;  161;GLY348
 15;  152;LYS347
 15;  158;LYS347
 14;  174;PHE350
 14;  176;PHE350
 14;  161;GLY348
 14;  158;LYS347
 13;  143;LEU345
 13; 1130;LEU467
 13; 1131;LEU467
 13; 1133;LEU467
 13;  299;VAL366
 13;  729;ILE416
 13;  731;ILE416
 12;  196;ALA353
 12;  565;LEU397
 12; 1132;LEU467
 12;  297;VAL366
 12;  299;VAL366
 12;  564;LEU397
 11;  196;ALA353
 11;  298;VAL366
 11; 1133;LEU467
 10;  174;PHE350
 10;  176;PHE350
 10;  161;GLY348
 10;  162;GLY348
 10;  171;PHE350
 10;  172;PHE350
 10;  173;PHE350
 10;  158;LYS347
  9;  174;PHE350
  9;  161;GLY348
  9;  152;LYS347
  9;  158;LYS347
  8;  176;PHE350
  8;  162;GLY348
  8;  172;PHE350
  8;  173;PHE350
  8;  158;LYS347
  7;  298;VAL366
  7;  297;VAL366
  7;  299;VAL366
  7;  716;TYR415
  7;  729;ILE416
  7;  731;ILE416
  7;  564;LEU397
  6;  565;LEU397
  6; 1132;LEU467
  6;  297;VAL366
  6;  299;VAL366
  6;  564;LEU397


$$$$
