7b_010
  PyMOL3.1          3D                             0

 33 34  0  0  0  0  0  0  0  0999 V2000
   11.8729    9.3681    1.9396 O   0  0  0  0  0  0  0  0  0  0  0  0
   11.0876    9.9784    1.2508 C   0  0  0  0  0  0  0  0  0  0  0  0
    9.6413    9.8061    1.4429 C   0  0  0  0  0  0  0  0  0  0  0  0
    8.7659   10.4839    0.6822 C   0  0  0  0  0  0  0  0  0  0  0  0
    7.3478   10.2829    0.9064 C   0  0  0  0  0  0  0  0  0  0  0  0
    6.4654   10.4204   -0.1597 C   0  0  0  0  0  0  0  0  0  0  0  0
    5.1070   10.2259    0.0650 C   0  0  0  0  0  0  0  0  0  0  0  0
    4.2365   10.3558   -0.9595 O   0  0  0  0  0  0  0  0  0  0  0  0
    4.6429    9.9001    1.3355 C   0  0  0  0  0  0  0  0  0  0  0  0
    3.3207    9.7152    1.5339 O   0  0  0  0  0  0  0  0  0  0  0  0
    5.5367    9.7655    2.3929 C   0  0  0  0  0  0  0  0  0  0  0  0
    6.8984    9.9572    2.1821 C   0  0  0  0  0  0  0  0  0  0  0  0
   11.5669   10.9283    0.1861 C   0  0  0  0  0  0  0  0  0  0  0  0
   12.3963   12.0250    0.7462 C   0  0  0  0  0  0  0  0  0  0  0  0
   11.8505   12.8854    1.6932 C   0  0  0  0  0  0  0  0  0  0  0  0
   12.6275   13.9130    2.2179 C   0  0  0  0  0  0  0  0  0  0  0  0
   13.9431   14.0754    1.7957 C   0  0  0  0  0  0  0  0  0  0  0  0
   14.4851   13.2127    0.8483 C   0  0  0  0  0  0  0  0  0  0  0  0
   13.7114   12.1839    0.3210 C   0  0  0  0  0  0  0  0  0  0  0  0
    9.3569    9.1097    2.2163 H   0  0  0  0  0  0  0  0  0  0  0  0
    9.2047   11.1428   -0.0522 H   0  0  0  0  0  0  0  0  0  0  0  0
    6.8019   10.6549   -1.0717 H   0  0  0  0  0  0  0  0  0  0  0  0
    3.2947   10.2201   -0.8000 H   0  0  0  0  0  0  0  0  0  0  0  0
    2.7132    9.8124    0.7889 H   0  0  0  0  0  0  0  0  0  0  0  0
    5.2002    9.5309    3.3049 H   0  0  0  0  0  0  0  0  0  0  0  0
    7.5460    9.8621    2.9380 H   0  0  0  0  0  0  0  0  0  0  0  0
   10.7134   11.3521   -0.3436 H   0  0  0  0  0  0  0  0  0  0  0  0
   12.1399   10.3832   -0.5639 H   0  0  0  0  0  0  0  0  0  0  0  0
   10.9047   12.7659    1.9952 H   0  0  0  0  0  0  0  0  0  0  0  0
   12.2405   14.5350    2.8986 H   0  0  0  0  0  0  0  0  0  0  0  0
   14.5007   14.8142    2.1742 H   0  0  0  0  0  0  0  0  0  0  0  0
   15.4309   13.3321    0.5464 H   0  0  0  0  0  0  0  0  0  0  0  0
   14.0983   11.5621   -0.3599 H   0  0  0  0  0  0  0  0  0  0  0  0
  1  2  2  0  0  0  0
  2  3  1  0  0  0  0
  2 13  1  0  0  0  0
  3  4  2  0  0  0  0
  3 20  1  0  0  0  0
  4  5  1  0  0  0  0
  4 21  1  0  0  0  0
  5  6  2  0  0  0  0
  5 12  1  0  0  0  0
  6  7  1  0  0  0  0
  6 22  1  0  0  0  0
  7  8  1  0  0  0  0
  7  9  2  0  0  0  0
  8 23  1  0  0  0  0
  9 10  1  0  0  0  0
  9 11  1  0  0  0  0
 10 24  1  0  0  0  0
 11 12  2  0  0  0  0
 11 25  1  0  0  0  0
 12 26  1  0  0  0  0
 13 14  1  0  0  0  0
 13 27  1  0  0  0  0
 13 28  1  0  0  0  0
 14 15  2  0  0  0  0
 14 19  1  0  0  0  0
 15 16  1  0  0  0  0
 15 29  1  0  0  0  0
 16 17  2  0  0  0  0
 16 30  1  0  0  0  0
 17 18  1  0  0  0  0
 17 31  1  0  0  0  0
 18 19  2  0  0  0  0
 18 32  1  0  0  0  0
 19 33  1  0  0  0  0
M  END
>  <SYBYL.NAME>
7b

>  <LEADIT.VERSION>
2.3.2   (25.08.17)

>  <BIOSOLVEIT.DOCKING_EXTREG>
7b_010

>  <BIOSOLVEIT.DOCKING_TARGET_NAME>
7b

>  <BIOSOLVEIT.DOCKING_POSE_NO>
8

>  <BIOSOLVEIT.DOCKING_E_TOTAL>
-19.242000

>  <BIOSOLVEIT.DOCKING_E_MATCH>
-20.217000

>  <BIOSOLVEIT.DOCKING_E_LIPO>
-7.839000

>  <BIOSOLVEIT.DOCKING_E_AMBIG>
-5.098000

>  <BIOSOLVEIT.DOCKING_E_CLASH>
2.912000

>  <BIOSOLVEIT.DOCKING_E_ROT>
5.600000

>  <BIOSOLVEIT.DOCKING_E_PPI>
0.000000

>  <BIOSOLVEIT.DOCKING_E_PLP>
0.000000

>  <BIOSOLVEIT.DOCKING_E_SAS>
0.000000

>  <BIOSOLVEIT.DOCKING_RMS>
3.017000

>  <BIOSOLVEIT.DOCKING_AVG_VOLUME>
0.178000

>  <BIOSOLVEIT.DOCKING_MAX_VOLUME>
0.971000

>  <BIOSOLVEIT.DOCKING_MATCHLIST>
  4;   6.00;  10.09;   1.12;   5.73;   8.32;  -3.27; -0.70; -0.70
  4;   6.00;  10.09;   1.12;   2.63;  12.95;   1.91; -0.70; -0.70
  4;   6.00;  10.09;   1.12;   4.42;  13.22;   4.88; -0.63; -0.63
  4;   6.00;  10.09;   1.12;   4.60;  13.87;   0.81; -0.70; -0.70
  4;   6.00;  10.09;   1.12;   6.27;   6.59;   1.50; -0.06; -0.06
  4;   6.00;  10.09;   1.12;   7.48;   5.94;   3.61; -0.70; -0.70
  7;  13.17;  13.05;   1.27;   8.47;  14.13;   1.74; -0.70; -0.70
  7;  13.17;  13.05;   1.27;  10.19;  16.52;   1.41; -0.70; -0.70
  7;  13.17;  13.05;   1.27;  12.76;  14.86;   4.96; -0.63; -0.63
  7;  13.17;  13.05;   1.27;  13.42;  17.78;   0.33; -0.70; -0.70
  3;   3.32;   9.72;   1.53;   1.81;   8.83;   2.95; -2.33; -2.33
  3;   2.71;   9.81;   0.79;   1.47;  10.10;  -0.55; -4.51; -4.51
  4;   6.00;  10.09;   1.12;   3.66;   7.36;  -2.09; -0.70; -0.70
  4;   6.00;  10.09;   1.12;   8.47;  14.13;   1.74; -0.70; -0.70
  2;   3.29;  10.22;  -0.80;   1.47;  10.10;  -0.55; -4.70; -4.70


>  <BIOSOLVEIT.POSEVIEW_INTERACTIONS>
   1.81;   8.83;   2.95; -2.33;    3;  699;1
   1.47;  10.10;  -0.55; -4.51;   21;  681;0
   1.47;  10.10;  -0.55; -4.70;   20;  681;0


>  <BIOSOLVEIT.POSEVIEW_HYDROPHOBIC_CONTACTS>
 19; 1191;ASP478
 19;  187;ALA353
 19;  305;LYS368
 19;  306;LYS368
 18;  187;ALA353
 18; 1106;LEU467
 18; 1107;LEU467
 17;  305;LYS368
 17; 1106;LEU467
 17;  187;ALA353
 15;  306;LYS368
 15;  178;GLN352
 15;  148;GLY346
 15;  176;GLN352
 15;  175;GLN352
 15;  149;GLY346
 15;  172;GLY351
 14;  172;GLY351
 14;  153;LYS347
 14;  306;LYS368
 13;  152;LYS347
 13;  172;GLY351
 13;  153;LYS347
 13;  176;GLN352
 13;  178;GLN352
 13;  184;ALA353
 13;  187;ALA353
 13;  306;LYS368
 12;  306;LYS368
 11;  305;LYS368
 11;  306;LYS368
 11;  184;ALA353
 11;  148;GLY346
 11;  176;GLN352
 11;  175;GLN352
 11;  149;GLY346
 10;  187;ALA353
 10;  145;LEU345
 10;  289;VAL366
 10; 1105;LEU467
 10; 1107;LEU467
  9;  145;LEU345
  9;  289;VAL366
  9; 1105;LEU467
  9; 1107;LEU467
  9;  290;VAL366
  9;  288;VAL366
  8;  288;VAL366
  8;  187;ALA353
  8;  289;VAL366
  8;  539;LEU397
  8; 1106;LEU467
  8;  538;LEU397
  7;  305;LYS368
  7;  187;ALA353
  7;  306;LYS368
  6;  187;ALA353
  6;  289;VAL366
  6; 1106;LEU467
  6;  539;LEU397
  5;  688;TYR415
  5;  145;LEU345
  5;  289;VAL366
  5;  288;VAL366
  5;  290;VAL366
  5;  704;ILE416
  5;  538;LEU397
  4;  677;THR413
  4;  289;VAL366
  4;  539;LEU397
  4; 1106;LEU467
  4;  288;VAL366
  4;  290;VAL366
  4;  538;LEU397


$$$$
