7d_015
  PyMOL3.1          3D                             0

 39 40  0  0  0  0  0  0  0  0999 V2000
   11.5236   10.4895    3.3697 O   0  0  0  0  0  0  0  0  0  0  0  0
   10.8534   10.6358    2.3748 C   0  0  0  0  0  0  0  0  0  0  0  0
    9.4036   10.4083    2.4131 C   0  0  0  0  0  0  0  0  0  0  0  0
    8.6576   10.5699    1.3108 C   0  0  0  0  0  0  0  0  0  0  0  0
    7.2298   10.3339    1.3961 C   0  0  0  0  0  0  0  0  0  0  0  0
    6.4450   10.4984    0.2599 C   0  0  0  0  0  0  0  0  0  0  0  0
    5.0765   10.2700    0.3515 C   0  0  0  0  0  0  0  0  0  0  0  0
    4.2999   10.4254   -0.7426 O   0  0  0  0  0  0  0  0  0  0  0  0
    4.5062    9.8843    1.5605 C   0  0  0  0  0  0  0  0  0  0  0  0
    3.1758    9.6672    1.6296 O   0  0  0  0  0  0  0  0  0  0  0  0
    5.3030    9.7233    2.6893 C   0  0  0  0  0  0  0  0  0  0  0  0
    6.6737    9.9484    2.6117 C   0  0  0  0  0  0  0  0  0  0  0  0
   11.4850   11.0542    1.0728 C   0  0  0  0  0  0  0  0  0  0  0  0
   11.5255   12.5742    0.9056 C   0  0  0  0  0  0  0  0  0  0  0  0
   12.3241   13.2681    2.0102 C   0  0  0  0  0  0  0  0  0  0  0  0
   13.7574   13.4021    1.6467 C   0  0  0  0  0  0  0  0  0  0  0  0
   14.7284   12.8083    2.4465 C   0  0  0  0  0  0  0  0  0  0  0  0
   16.0713   12.9340    2.1059 C   0  0  0  0  0  0  0  0  0  0  0  0
   16.4369   13.6499    0.9705 C   0  0  0  0  0  0  0  0  0  0  0  0
   15.4626   14.2423    0.1734 C   0  0  0  0  0  0  0  0  0  0  0  0
   14.1186   14.1192    0.5105 C   0  0  0  0  0  0  0  0  0  0  0  0
    9.0096   10.1105    3.3723 H   0  0  0  0  0  0  0  0  0  0  0  0
    9.1962   10.8733    0.4247 H   0  0  0  0  0  0  0  0  0  0  0  0
    6.8576   10.7761   -0.6077 H   0  0  0  0  0  0  0  0  0  0  0  0
    3.3495   10.2659   -0.6753 H   0  0  0  0  0  0  0  0  0  0  0  0
    2.6343    9.7825    0.8386 H   0  0  0  0  0  0  0  0  0  0  0  0
    4.8904    9.4456    3.5569 H   0  0  0  0  0  0  0  0  0  0  0  0
    7.2520    9.8345    3.4195 H   0  0  0  0  0  0  0  0  0  0  0  0
   12.5218   10.7192    1.0400 H   0  0  0  0  0  0  0  0  0  0  0  0
   10.9571   10.5902    0.2384 H   0  0  0  0  0  0  0  0  0  0  0  0
   10.5158   12.9821    0.8461 H   0  0  0  0  0  0  0  0  0  0  0  0
   11.9124   12.8429   -0.0754 H   0  0  0  0  0  0  0  0  0  0  0  0
   12.2358   12.7227    2.9504 H   0  0  0  0  0  0  0  0  0  0  0  0
   11.9089   14.2534    2.2220 H   0  0  0  0  0  0  0  0  0  0  0  0
   14.4625   12.2939    3.2617 H   0  0  0  0  0  0  0  0  0  0  0  0
   16.7738   12.5097    2.6773 H   0  0  0  0  0  0  0  0  0  0  0  0
   17.4026   13.7390    0.7266 H   0  0  0  0  0  0  0  0  0  0  0  0
   15.7284   14.7567   -0.6419 H   0  0  0  0  0  0  0  0  0  0  0  0
   13.4160   14.5437   -0.0606 H   0  0  0  0  0  0  0  0  0  0  0  0
  1  2  2  0  0  0  0
  2  3  1  0  0  0  0
  2 13  1  0  0  0  0
  3  4  2  0  0  0  0
  3 22  1  0  0  0  0
  4  5  1  0  0  0  0
  4 23  1  0  0  0  0
  5  6  2  0  0  0  0
  5 12  1  0  0  0  0
  6  7  1  0  0  0  0
  6 24  1  0  0  0  0
  7  8  1  0  0  0  0
  7  9  2  0  0  0  0
  8 25  1  0  0  0  0
  9 10  1  0  0  0  0
  9 11  1  0  0  0  0
 10 26  1  0  0  0  0
 11 12  2  0  0  0  0
 11 27  1  0  0  0  0
 12 28  1  0  0  0  0
 13 14  1  0  0  0  0
 13 29  1  0  0  0  0
 13 30  1  0  0  0  0
 14 15  1  0  0  0  0
 14 31  1  0  0  0  0
 14 32  1  0  0  0  0
 15 16  1  0  0  0  0
 15 33  1  0  0  0  0
 15 34  1  0  0  0  0
 16 17  2  0  0  0  0
 16 21  1  0  0  0  0
 17 18  1  0  0  0  0
 17 35  1  0  0  0  0
 18 19  2  0  0  0  0
 18 36  1  0  0  0  0
 19 20  1  0  0  0  0
 19 37  1  0  0  0  0
 20 21  2  0  0  0  0
 20 38  1  0  0  0  0
 21 39  1  0  0  0  0
M  END
>  <SYBYL.NAME>
7d

>  <LEADIT.VERSION>
2.3.2   (25.08.17)

>  <BIOSOLVEIT.DOCKING_EXTREG>
7d_015

>  <BIOSOLVEIT.DOCKING_TARGET_NAME>
7d

>  <BIOSOLVEIT.DOCKING_POSE_NO>
13

>  <BIOSOLVEIT.DOCKING_E_TOTAL>
-17.122000

>  <BIOSOLVEIT.DOCKING_E_MATCH>
-19.374000

>  <BIOSOLVEIT.DOCKING_E_LIPO>
-9.933000

>  <BIOSOLVEIT.DOCKING_E_AMBIG>
-5.214000

>  <BIOSOLVEIT.DOCKING_E_CLASH>
3.598000

>  <BIOSOLVEIT.DOCKING_E_ROT>
8.400000

>  <BIOSOLVEIT.DOCKING_E_PPI>
0.000000

>  <BIOSOLVEIT.DOCKING_E_PLP>
0.000000

>  <BIOSOLVEIT.DOCKING_E_SAS>
0.000000

>  <BIOSOLVEIT.DOCKING_RMS>
7.144000

>  <BIOSOLVEIT.DOCKING_AVG_VOLUME>
0.234000

>  <BIOSOLVEIT.DOCKING_MAX_VOLUME>
1.768000

>  <BIOSOLVEIT.DOCKING_MATCHLIST>
  4;   5.88;  10.11;   1.48;   3.66;   7.36;  -2.09; -0.70; -0.70
  4;   5.88;  10.11;   1.48;   5.73;   8.32;  -3.27; -0.70; -0.70
  4;   5.88;  10.11;   1.48;   2.63;  12.95;   1.91; -0.70; -0.70
  4;   5.88;  10.11;   1.48;   4.60;  13.87;   0.81; -0.70; -0.70
  4;   5.88;  10.11;   1.48;   4.42;  13.22;   4.88; -0.70; -0.70
  4;   5.88;  10.11;   1.48;   6.27;   6.59;   1.50; -0.08; -0.08
  4;   5.88;  10.11;   1.48;   7.48;   5.94;   3.61; -0.70; -0.70
  7;  15.10;  13.53;   1.31;  12.76;  14.86;   4.96; -0.70; -0.70
  7;  15.10;  13.53;   1.31;  13.42;  17.78;   0.33; -0.68; -0.68
  2;   3.35;  10.27;  -0.68;   1.47;  10.10;  -0.55; -4.70; -4.70
  3;   2.63;   9.78;   0.84;   1.47;  10.10;  -0.55; -4.70; -4.70
  3;   3.18;   9.67;   1.63;   1.81;   8.83;   2.95; -3.78; -3.78
  4;   5.88;  10.11;   1.48;   8.47;  14.13;   1.74; -0.70; -0.70


>  <BIOSOLVEIT.POSEVIEW_INTERACTIONS>
   1.47;  10.10;  -0.55; -4.70;   22;  681;0
   1.47;  10.10;  -0.55; -4.70;   23;  681;0
   1.81;   8.83;   2.95; -3.78;    3;  699;1


>  <BIOSOLVEIT.POSEVIEW_HYDROPHOBIC_CONTACTS>
 21;  149;GLY346
 21;  175;GLN352
 21;  176;GLN352
 21;  148;GLY346
 21;  184;ALA353
 21;  305;LYS368
 20;  187;ALA353
 20;  305;LYS368
 20;  306;LYS368
 19;  152;LYS347
 19;  153;LYS347
 19;  175;GLN352
 19;  176;GLN352
 19;  184;ALA353
 19;  187;ALA353
 19;  306;LYS368
 18;  187;ALA353
 18; 1107;LEU467
 17; 1106;LEU467
 16;  148;GLY346
 16;  187;ALA353
 15;  157;GLY348
 15;  153;LYS347
 14;  172;GLY351
 14;  171;GLY351
 14;  153;LYS347
 14;  306;LYS368
 13;  157;GLY348
 13;  152;LYS347
 13;  153;LYS347
 12;  152;LYS347
 12;  172;GLY351
 12;  171;GLY351
 12;  153;LYS347
 12;  175;GLN352
 12;  176;GLN352
 12;  306;LYS368
 11;  152;LYS347
 11;  149;GLY346
 11;  153;LYS347
 11;  148;GLY346
 10; 1105;LEU467
 10;  143;LEU345
 10; 1107;LEU467
 10;  289;VAL366
 10;  145;LEU345
 10;  187;ALA353
  9;  145;LEU345
  9;  289;VAL366
  9; 1105;LEU467
  9; 1107;LEU467
  9;  290;VAL366
  9;  703;ILE416
  8;  538;LEU397
  8;  290;VAL366
  8;  288;VAL366
  8; 1106;LEU467
  8;  539;LEU397
  8;  289;VAL366
  8;  187;ALA353
  7;  152;LYS347
  7;  172;GLY351
  7;  149;GLY346
  7;  153;LYS347
  7;  175;GLN352
  7;  148;GLY346
  7;  306;LYS368
  6; 1106;LEU467
  6;  289;VAL366
  6;  187;ALA353
  5;  538;LEU397
  5;  704;ILE416
  5;  703;ILE416
  5;  688;TYR415
  5;  288;VAL366
  5; 1106;LEU467
  5;  289;VAL366
  5;  145;LEU345
  4;  538;LEU397
  4;  290;VAL366
  4;  288;VAL366
  4; 1106;LEU467
  4;  539;LEU397


$$$$
