7b_017
  PyMOL3.1          3D                             0

 33 34  0  0  0  0  0  0  0  0999 V2000
   11.5146   10.8882    3.1714 O   0  0  0  0  0  0  0  0  0  0  0  0
   10.8188   11.0003    2.1882 C   0  0  0  0  0  0  0  0  0  0  0  0
    9.3805   10.7091    2.2591 C   0  0  0  0  0  0  0  0  0  0  0  0
    8.6038   10.8349    1.1705 C   0  0  0  0  0  0  0  0  0  0  0  0
    7.1897   10.5371    1.2864 C   0  0  0  0  0  0  0  0  0  0  0  0
    6.3749   10.6638    0.1666 C   0  0  0  0  0  0  0  0  0  0  0  0
    5.0198   10.3761    0.2875 C   0  0  0  0  0  0  0  0  0  0  0  0
    4.2144   10.4942   -0.7903 O   0  0  0  0  0  0  0  0  0  0  0  0
    4.4925    9.9695    1.5091 C   0  0  0  0  0  0  0  0  0  0  0  0
    3.1746    9.6946    1.6067 O   0  0  0  0  0  0  0  0  0  0  0  0
    5.3190    9.8467    2.6212 C   0  0  0  0  0  0  0  0  0  0  0  0
    6.6766   10.1313    2.5142 C   0  0  0  0  0  0  0  0  0  0  0  0
   11.4025   11.4415    0.8727 C   0  0  0  0  0  0  0  0  0  0  0  0
   12.5712   12.3395    1.0517 C   0  0  0  0  0  0  0  0  0  0  0  0
   12.4159   13.5436    1.7308 C   0  0  0  0  0  0  0  0  0  0  0  0
   13.5109   14.3850    1.8984 C   0  0  0  0  0  0  0  0  0  0  0  0
   14.7530   14.0202    1.3888 C   0  0  0  0  0  0  0  0  0  0  0  0
   14.9038   12.8150    0.7102 C   0  0  0  0  0  0  0  0  0  0  0  0
   13.8113   11.9708    0.5402 C   0  0  0  0  0  0  0  0  0  0  0  0
    9.0195   10.3929    3.2254 H   0  0  0  0  0  0  0  0  0  0  0  0
    9.1121   11.1593    0.2747 H   0  0  0  0  0  0  0  0  0  0  0  0
    6.7567   10.9566   -0.7100 H   0  0  0  0  0  0  0  0  0  0  0  0
    3.2747   10.2938   -0.7028 H   0  0  0  0  0  0  0  0  0  0  0  0
    2.6141    9.7848    0.8248 H   0  0  0  0  0  0  0  0  0  0  0  0
    4.9372    9.5539    3.4978 H   0  0  0  0  0  0  0  0  0  0  0  0
    7.2761   10.0452    3.3099 H   0  0  0  0  0  0  0  0  0  0  0  0
   10.6406   11.9499    0.2814 H   0  0  0  0  0  0  0  0  0  0  0  0
   11.6974   10.5696    0.2890 H   0  0  0  0  0  0  0  0  0  0  0  0
   11.5220   13.8029    2.0964 H   0  0  0  0  0  0  0  0  0  0  0  0
   13.4053   15.2521    2.3852 H   0  0  0  0  0  0  0  0  0  0  0  0
   15.5394   14.6258    1.5105 H   0  0  0  0  0  0  0  0  0  0  0  0
   15.7977   12.5556    0.3445 H   0  0  0  0  0  0  0  0  0  0  0  0
   13.9168   11.1039    0.0531 H   0  0  0  0  0  0  0  0  0  0  0  0
  1  2  2  0  0  0  0
  2  3  1  0  0  0  0
  2 13  1  0  0  0  0
  3  4  2  0  0  0  0
  3 20  1  0  0  0  0
  4  5  1  0  0  0  0
  4 21  1  0  0  0  0
  5  6  2  0  0  0  0
  5 12  1  0  0  0  0
  6  7  1  0  0  0  0
  6 22  1  0  0  0  0
  7  8  1  0  0  0  0
  7  9  2  0  0  0  0
  8 23  1  0  0  0  0
  9 10  1  0  0  0  0
  9 11  1  0  0  0  0
 10 24  1  0  0  0  0
 11 12  2  0  0  0  0
 11 25  1  0  0  0  0
 12 26  1  0  0  0  0
 13 14  1  0  0  0  0
 13 27  1  0  0  0  0
 13 28  1  0  0  0  0
 14 15  2  0  0  0  0
 14 19  1  0  0  0  0
 15 16  1  0  0  0  0
 15 29  1  0  0  0  0
 16 17  2  0  0  0  0
 16 30  1  0  0  0  0
 17 18  1  0  0  0  0
 17 31  1  0  0  0  0
 18 19  2  0  0  0  0
 18 32  1  0  0  0  0
 19 33  1  0  0  0  0
M  END
>  <SYBYL.NAME>
7b

>  <LEADIT.VERSION>
2.3.2   (25.08.17)

>  <BIOSOLVEIT.DOCKING_EXTREG>
7b_017

>  <BIOSOLVEIT.DOCKING_TARGET_NAME>
7b

>  <BIOSOLVEIT.DOCKING_POSE_NO>
15

>  <BIOSOLVEIT.DOCKING_E_TOTAL>
-18.618000

>  <BIOSOLVEIT.DOCKING_E_MATCH>
-20.491000

>  <BIOSOLVEIT.DOCKING_E_LIPO>
-7.723000

>  <BIOSOLVEIT.DOCKING_E_AMBIG>
-4.433000

>  <BIOSOLVEIT.DOCKING_E_CLASH>
3.029000

>  <BIOSOLVEIT.DOCKING_E_ROT>
5.600000

>  <BIOSOLVEIT.DOCKING_E_PPI>
0.000000

>  <BIOSOLVEIT.DOCKING_E_PLP>
0.000000

>  <BIOSOLVEIT.DOCKING_E_SAS>
0.000000

>  <BIOSOLVEIT.DOCKING_RMS>
1.471000

>  <BIOSOLVEIT.DOCKING_AVG_VOLUME>
0.147000

>  <BIOSOLVEIT.DOCKING_MAX_VOLUME>
0.939000

>  <BIOSOLVEIT.DOCKING_MATCHLIST>
  4;   5.85;  10.25;   1.40;   3.66;   7.36;  -2.09; -0.70; -0.70
  4;   5.85;  10.25;   1.40;   5.73;   8.32;  -3.27; -0.70; -0.70
  4;   5.85;  10.25;   1.40;   2.63;  12.95;   1.91; -0.70; -0.70
  4;   5.85;  10.25;   1.40;   4.60;  13.87;   0.81; -0.64; -0.64
  4;   5.85;  10.25;   1.40;   4.42;  13.22;   4.88; -0.70; -0.70
  4;   5.85;  10.25;   1.40;   6.27;   6.59;   1.50; -0.34; -0.34
  4;   5.85;  10.25;   1.40;   7.48;   5.94;   3.61; -0.68; -0.68
  7;  13.66;  13.18;   1.22;  10.19;  16.52;   1.41; -0.70; -0.70
  7;  13.66;  13.18;   1.22;   8.47;  14.13;   1.74; -0.24; -0.24
  7;  13.66;  13.18;   1.22;  13.42;  17.78;   0.33; -0.70; -0.70
  7;  13.66;  13.18;   1.22;  12.76;  14.86;   4.96; -0.70; -0.70
  2;   3.27;  10.29;  -0.70;   1.47;  10.10;  -0.55; -4.70; -4.70
  3;   2.61;   9.78;   0.82;   1.47;  10.10;  -0.55; -4.70; -4.70
  3;   3.17;   9.69;   1.61;   1.81;   8.83;   2.95; -3.85; -3.85
  4;   5.85;  10.25;   1.40;   8.47;  14.13;   1.74; -0.70; -0.70


>  <BIOSOLVEIT.POSEVIEW_INTERACTIONS>
   1.47;  10.10;  -0.55; -4.70;   20;  681;0
   1.47;  10.10;  -0.55; -4.70;   21;  681;0
   1.81;   8.83;   2.95; -3.85;    3;  699;1


>  <BIOSOLVEIT.POSEVIEW_HYDROPHOBIC_CONTACTS>
 19;  306;LYS368
 19;  305;LYS368
 19;  187;ALA353
 17; 1106;LEU467
 16;  187;ALA353
 16;  148;GLY346
 15;  175;GLN352
 15;  149;GLY346
 15;  171;GLY351
 15;  172;GLY351
 15;  152;LYS347
 15;  157;GLY348
 14;  153;LYS347
 14;  306;LYS368
 13;  172;GLY351
 13;  176;GLN352
 13;  178;GLN352
 13;  148;GLY346
 13;  306;LYS368
 12;  306;LYS368
 11;  152;LYS347
 11;  153;LYS347
 11;  175;GLN352
 11;  176;GLN352
 11;  148;GLY346
 11;  184;ALA353
 11;  187;ALA353
 11;  306;LYS368
 10;  187;ALA353
 10;  143;LEU345
 10;  145;LEU345
 10;  289;VAL366
 10; 1107;LEU467
 10;  290;VAL366
 10; 1105;LEU467
  9;  145;LEU345
  9;  289;VAL366
  9; 1105;LEU467
  9; 1107;LEU467
  9;  290;VAL366
  9;  288;VAL366
  8;  538;LEU397
  8;  290;VAL366
  8;  288;VAL366
  8; 1106;LEU467
  8;  539;LEU397
  8;  187;ALA353
  7;  306;LYS368
  7;  187;ALA353
  7;  149;GLY346
  6; 1106;LEU467
  6;  289;VAL366
  6;  187;ALA353
  5;  688;TYR415
  5;  703;ILE416
  5;  145;LEU345
  5;  289;VAL366
  5; 1106;LEU467
  5;  288;VAL366
  5;  704;ILE416
  5;  538;LEU397
  4;  538;LEU397
  4;  290;VAL366
  4;  288;VAL366
  4; 1106;LEU467
  4;  539;LEU397


$$$$
