7c_008
  PyMOL3.1          3D                             0

 36 37  0  0  0  0  0  0  0  0999 V2000
   11.7152    9.2971    3.1057 O   0  0  0  0  0  0  0  0  0  0  0  0
   11.0172    9.9642    2.3774 C   0  0  0  0  0  0  0  0  0  0  0  0
    9.5618    9.7786    2.3678 C   0  0  0  0  0  0  0  0  0  0  0  0
    8.7787   10.5157    1.5629 C   0  0  0  0  0  0  0  0  0  0  0  0
    7.3463   10.2941    1.5907 C   0  0  0  0  0  0  0  0  0  0  0  0
    6.6017   10.5189    0.4379 C   0  0  0  0  0  0  0  0  0  0  0  0
    5.2284   10.3039    0.4741 C   0  0  0  0  0  0  0  0  0  0  0  0
    4.4905   10.5176   -0.6368 O   0  0  0  0  0  0  0  0  0  0  0  0
    4.6139    9.8719    1.6452 C   0  0  0  0  0  0  0  0  0  0  0  0
    3.2796    9.6686    1.6608 O   0  0  0  0  0  0  0  0  0  0  0  0
    5.3708    9.6507    2.7912 C   0  0  0  0  0  0  0  0  0  0  0  0
    6.7457    9.8619    2.7688 C   0  0  0  0  0  0  0  0  0  0  0  0
   11.6184   10.9997    1.4651 C   0  0  0  0  0  0  0  0  0  0  0  0
   11.7213   12.3726    2.1271 C   0  0  0  0  0  0  0  0  0  0  0  0
   12.8730   13.1511    1.5982 C   0  0  0  0  0  0  0  0  0  0  0  0
   14.1164   13.0434    2.2126 C   0  0  0  0  0  0  0  0  0  0  0  0
   15.1935   13.7715    1.7181 C   0  0  0  0  0  0  0  0  0  0  0  0
   15.0241   14.6013    0.6143 C   0  0  0  0  0  0  0  0  0  0  0  0
   13.7788   14.7062    0.0028 C   0  0  0  0  0  0  0  0  0  0  0  0
   12.6991   13.9798    0.4944 C   0  0  0  0  0  0  0  0  0  0  0  0
    9.1891    9.0225    3.0453 H   0  0  0  0  0  0  0  0  0  0  0  0
    9.2989   11.2331    0.9444 H   0  0  0  0  0  0  0  0  0  0  0  0
    7.0461   10.8297   -0.4023 H   0  0  0  0  0  0  0  0  0  0  0  0
    3.5360   10.3670   -0.6077 H   0  0  0  0  0  0  0  0  0  0  0  0
    2.7697    9.8267    0.8575 H   0  0  0  0  0  0  0  0  0  0  0  0
    4.9264    9.3399    3.6314 H   0  0  0  0  0  0  0  0  0  0  0  0
    7.2954    9.7048    3.5893 H   0  0  0  0  0  0  0  0  0  0  0  0
   12.6382   10.7161    1.2028 H   0  0  0  0  0  0  0  0  0  0  0  0
   11.0415   11.0575    0.5420 H   0  0  0  0  0  0  0  0  0  0  0  0
   11.8147   12.2749    3.2082 H   0  0  0  0  0  0  0  0  0  0  0  0
   10.8006   12.9418    1.9803 H   0  0  0  0  0  0  0  0  0  0  0  0
   14.2352   12.4457    3.0056 H   0  0  0  0  0  0  0  0  0  0  0  0
   16.0896   13.6986    2.1559 H   0  0  0  0  0  0  0  0  0  0  0  0
   15.7995   15.1238    0.2595 H   0  0  0  0  0  0  0  0  0  0  0  0
   13.6599   15.3038   -0.7901 H   0  0  0  0  0  0  0  0  0  0  0  0
   11.8029   14.0530    0.0568 H   0  0  0  0  0  0  0  0  0  0  0  0
  1  2  2  0  0  0  0
  2  3  1  0  0  0  0
  2 13  1  0  0  0  0
  3  4  2  0  0  0  0
  3 21  1  0  0  0  0
  4  5  1  0  0  0  0
  4 22  1  0  0  0  0
  5  6  2  0  0  0  0
  5 12  1  0  0  0  0
  6  7  1  0  0  0  0
  6 23  1  0  0  0  0
  7  8  1  0  0  0  0
  7  9  2  0  0  0  0
  8 24  1  0  0  0  0
  9 10  1  0  0  0  0
  9 11  1  0  0  0  0
 10 25  1  0  0  0  0
 11 12  2  0  0  0  0
 11 26  1  0  0  0  0
 12 27  1  0  0  0  0
 13 14  1  0  0  0  0
 13 28  1  0  0  0  0
 13 29  1  0  0  0  0
 14 15  1  0  0  0  0
 14 30  1  0  0  0  0
 14 31  1  0  0  0  0
 15 16  2  0  0  0  0
 15 20  1  0  0  0  0
 16 17  1  0  0  0  0
 16 32  1  0  0  0  0
 17 18  2  0  0  0  0
 17 33  1  0  0  0  0
 18 19  1  0  0  0  0
 18 34  1  0  0  0  0
 19 20  2  0  0  0  0
 19 35  1  0  0  0  0
 20 36  1  0  0  0  0
M  END
>  <SYBYL.NAME>
7c

>  <LEADIT.VERSION>
2.3.2   (25.08.17)

>  <BIOSOLVEIT.DOCKING_EXTREG>
7c_008

>  <BIOSOLVEIT.DOCKING_TARGET_NAME>
7c

>  <BIOSOLVEIT.DOCKING_POSE_NO>
8.000000

>  <BIOSOLVEIT.DOCKING_E_TOTAL>
-18.318000

>  <BIOSOLVEIT.DOCKING_E_MATCH>
-19.865000

>  <BIOSOLVEIT.DOCKING_E_LIPO>
-9.044000

>  <BIOSOLVEIT.DOCKING_E_AMBIG>
-6.058000

>  <BIOSOLVEIT.DOCKING_E_CLASH>
4.248000

>  <BIOSOLVEIT.DOCKING_E_ROT>
7.000000

>  <BIOSOLVEIT.DOCKING_E_PPI>
0.000000

>  <BIOSOLVEIT.DOCKING_E_PLP>
0.000000

>  <BIOSOLVEIT.DOCKING_E_SAS>
0.000000

>  <BIOSOLVEIT.DOCKING_RMS>
1.455000

>  <BIOSOLVEIT.DOCKING_AVG_VOLUME>
0.268000

>  <BIOSOLVEIT.DOCKING_MAX_VOLUME>
2.227000

>  <BIOSOLVEIT.DOCKING_MATCHLIST>
  7;  13.95;  13.88;   1.11;  10.19;  16.52;   1.41; -0.64; -0.64
  4;   5.99;  10.08;   1.62;   3.66;   7.36;  -2.09; -0.60; -0.60
  4;   5.99;  10.08;   1.62;   5.73;   8.32;  -3.27; -0.51; -0.51
  4;   5.99;  10.08;   1.62;   2.63;  12.95;   1.91; -0.70; -0.70
  4;   5.99;  10.08;   1.62;   4.60;  13.87;   0.81; -0.70; -0.70
  4;   5.99;  10.08;   1.62;   4.42;  13.22;   4.88; -0.70; -0.70
  4;   5.99;  10.08;   1.62;   7.48;   5.94;   3.61; -0.70; -0.70
  4;   5.99;  10.08;   1.62;   6.27;   6.59;   1.50; -0.02; -0.02
  7;  13.95;  13.88;   1.11;  12.76;  14.86;   4.96; -0.70; -0.70
  7;  13.95;  13.88;   1.11;  13.42;  17.78;   0.33; -0.70; -0.70
  2;   3.54;  10.37;  -0.61;   1.47;  10.10;  -0.55; -4.70; -4.70
  3;   2.77;   9.83;   0.86;   1.47;  10.10;  -0.55; -4.70; -4.70
  3;   3.28;   9.67;   1.66;   1.81;   8.83;   2.95; -3.76; -3.76
  4;   5.99;  10.08;   1.62;   8.47;  14.13;   1.74; -0.70; -0.70


>  <BIOSOLVEIT.POSEVIEW_INTERACTIONS>
   1.47;  10.10;  -0.55; -4.70;   21;  681;0
   1.47;  10.10;  -0.55; -4.70;   22;  681;0
   1.81;   8.83;   2.95; -3.76;    3;  699;1


>  <BIOSOLVEIT.POSEVIEW_HYDROPHOBIC_CONTACTS>
 20;  148;GLY346
 20;  187;ALA353
 20;  306;LYS368
 19;  149;GLY346
 19;  184;ALA353
 19;  306;LYS368
 18; 1107;LEU467
 18; 1106;LEU467
 18;  187;ALA353
 17; 1106;LEU467
 16;  187;ALA353
 15;  157;GLY348
 15;  152;LYS347
 15;  171;GLY351
 15;  153;LYS347
 15;  175;GLN352
 15;  306;LYS368
 14;  171;GLY351
 14;  176;GLN352
 14;  178;GLN352
 14;  305;LYS368
 13;  157;GLY348
 13;  152;LYS347
 13;  172;GLY351
 13;  149;GLY346
 12;  172;GLY351
 12;  149;GLY346
 12;  176;GLN352
 12;  178;GLN352
 12;  184;ALA353
 12;  187;ALA353
 12;  305;LYS368
 11;  152;LYS347
 11;  149;GLY346
 11;  153;LYS347
 11;  148;GLY346
 10;  187;ALA353
 10;  143;LEU345
 10;  145;LEU345
 10;  289;VAL366
 10; 1105;LEU467
 10; 1107;LEU467
  9;  145;LEU345
  9;  289;VAL366
  9; 1105;LEU467
  9; 1107;LEU467
  9;  290;VAL366
  9;  703;ILE416
  8;  187;ALA353
  8;  289;VAL366
  8;  539;LEU397
  8; 1106;LEU467
  8;  288;VAL366
  8;  290;VAL366
  8;  538;LEU397
  7;  152;LYS347
  7;  149;GLY346
  7;  175;GLN352
  7;  176;GLN352
  7;  148;GLY346
  7;  187;ALA353
  7;  306;LYS368
  6;  187;ALA353
  6;  289;VAL366
  6; 1106;LEU467
  6; 1107;LEU467
  5;  145;LEU345
  5;  289;VAL366
  5;  288;VAL366
  5;  688;TYR415
  5;  703;ILE416
  5;  704;ILE416
  5;  538;LEU397
  4;  539;LEU397
  4; 1106;LEU467
  4;  288;VAL366
  4;  290;VAL366
  4;  538;LEU397


$$$$
