curcumin_035
  PyMOL3.1          3D                             0

 47 48  0  0  0  0  0  0  0  0999 V2000
   10.4461   12.1831    2.3227 O   0  0  0  0  0  0  0  0  0  0  0  0
   11.4871   11.7750    2.7835 C   0  0  0  0  0  0  0  0  0  0  0  0
   12.7679   12.3156    2.3168 C   0  0  0  0  0  0  0  0  0  0  0  0
   13.9288   11.8677    2.8250 C   0  0  0  0  0  0  0  0  0  0  0  0
   15.2074   12.4500    2.3168 C   0  0  0  0  0  0  0  0  0  0  0  0
   16.4181   11.9982    2.8316 C   0  0  0  0  0  0  0  0  0  0  0  0
   17.6064   12.5422    2.3558 C   0  0  0  0  0  0  0  0  0  0  0  0
   17.5733   13.5278    1.3751 C   0  0  0  0  0  0  0  0  0  0  0  0
   18.7241   14.0588    0.9104 O   0  0  0  0  0  0  0  0  0  0  0  0
   16.3574   13.9714    0.8680 C   0  0  0  0  0  0  0  0  0  0  0  0
   16.3319   14.9273   -0.0843 O   0  0  0  0  0  0  0  0  0  0  0  0
   16.3685   14.5172   -1.4422 C   0  0  0  0  0  0  0  0  0  0  0  0
   15.1627   13.4345    1.3358 C   0  0  0  0  0  0  0  0  0  0  0  0
   11.4990   10.7073    3.8445 C   0  0  0  0  0  0  0  0  0  0  0  0
   10.2580   10.7878    4.6890 C   0  0  0  0  0  0  0  0  0  0  0  0
   10.3281   10.9803    5.8805 O   0  0  0  0  0  0  0  0  0  0  0  0
    8.9536   10.6283    4.0400 C   0  0  0  0  0  0  0  0  0  0  0  0
    7.9130   10.1039    4.7110 C   0  0  0  0  0  0  0  0  0  0  0  0
    6.6038    9.9612    4.0073 C   0  0  0  0  0  0  0  0  0  0  0  0
    6.4959   10.3727    2.6832 C   0  0  0  0  0  0  0  0  0  0  0  0
    5.2727   10.2360    2.0362 C   0  0  0  0  0  0  0  0  0  0  0  0
    5.1509   10.6309    0.7503 O   0  0  0  0  0  0  0  0  0  0  0  0
    6.2988   10.5553   -0.0825 C   0  0  0  0  0  0  0  0  0  0  0  0
    4.1784    9.6971    2.7054 C   0  0  0  0  0  0  0  0  0  0  0  0
    2.9993    9.5724    2.0604 O   0  0  0  0  0  0  0  0  0  0  0  0
    4.3003    9.2894    4.0297 C   0  0  0  0  0  0  0  0  0  0  0  0
    5.5184    9.4203    4.6890 C   0  0  0  0  0  0  0  0  0  0  0  0
   12.8609   13.0823    1.5606 H   0  0  0  0  0  0  0  0  0  0  0  0
   14.0161   11.1069    3.5853 H   0  0  0  0  0  0  0  0  0  0  0  0
   16.4340   11.2894    3.5368 H   0  0  0  0  0  0  0  0  0  0  0  0
   18.4829   12.2252    2.7181 H   0  0  0  0  0  0  0  0  0  0  0  0
   19.0932   14.8387    1.3467 H   0  0  0  0  0  0  0  0  0  0  0  0
   15.5536   13.8742   -1.7808 H   0  0  0  0  0  0  0  0  0  0  0  0
   17.3031   13.9866   -1.6136 H   0  0  0  0  0  0  0  0  0  0  0  0
   16.3706   15.4092   -2.0680 H   0  0  0  0  0  0  0  0  0  0  0  0
   14.2864   13.7511    0.9727 H   0  0  0  0  0  0  0  0  0  0  0  0
   11.5677    9.7232    3.3793 H   0  0  0  0  0  0  0  0  0  0  0  0
   12.3838   10.8212    4.4732 H   0  0  0  0  0  0  0  0  0  0  0  0
    8.9024   10.9584    3.0119 H   0  0  0  0  0  0  0  0  0  0  0  0
    8.1199    9.8218    5.7336 H   0  0  0  0  0  0  0  0  0  0  0  0
    7.2841   10.7599    2.2049 H   0  0  0  0  0  0  0  0  0  0  0  0
    6.0237   10.9095   -1.0767 H   0  0  0  0  0  0  0  0  0  0  0  0
    7.1144   11.0873    0.4103 H   0  0  0  0  0  0  0  0  0  0  0  0
    6.5892    9.5073   -0.1688 H   0  0  0  0  0  0  0  0  0  0  0  0
    2.9302    9.8603    1.1399 H   0  0  0  0  0  0  0  0  0  0  0  0
    3.5122    8.9020    4.5081 H   0  0  0  0  0  0  0  0  0  0  0  0
    5.6126    9.1292    5.6411 H   0  0  0  0  0  0  0  0  0  0  0  0
  1  2  2  0  0  0  0
  2  3  1  0  0  0  0
  2 14  1  0  0  0  0
  3  4  2  0  0  0  0
  3 28  1  0  0  0  0
  4  5  1  0  0  0  0
  4 29  1  0  0  0  0
  5  6  2  0  0  0  0
  5 13  1  0  0  0  0
  6  7  1  0  0  0  0
  6 30  1  0  0  0  0
  7  8  2  0  0  0  0
  7 31  1  0  0  0  0
  8  9  1  0  0  0  0
  8 10  1  0  0  0  0
  9 32  1  0  0  0  0
 10 11  1  0  0  0  0
 10 13  2  0  0  0  0
 11 12  1  0  0  0  0
 12 33  1  0  0  0  0
 12 34  1  0  0  0  0
 12 35  1  0  0  0  0
 13 36  1  0  0  0  0
 14 15  1  0  0  0  0
 14 37  1  0  0  0  0
 14 38  1  0  0  0  0
 15 16  2  0  0  0  0
 15 17  1  0  0  0  0
 17 18  2  0  0  0  0
 17 39  1  0  0  0  0
 18 19  1  0  0  0  0
 18 40  1  0  0  0  0
 19 20  2  0  0  0  0
 19 27  1  0  0  0  0
 20 21  1  0  0  0  0
 20 41  1  0  0  0  0
 21 22  1  0  0  0  0
 21 24  2  0  0  0  0
 22 23  1  0  0  0  0
 23 42  1  0  0  0  0
 23 43  1  0  0  0  0
 23 44  1  0  0  0  0
 24 25  1  0  0  0  0
 24 26  1  0  0  0  0
 25 45  1  0  0  0  0
 26 27  2  0  0  0  0
 26 46  1  0  0  0  0
 27 47  1  0  0  0  0
M  END
>  <SYBYL.NAME>
curcumin

>  <LEADIT.VERSION>
2.3.2   (25.08.17)

>  <BIOSOLVEIT.DOCKING_EXTREG>
curcumin_035

>  <BIOSOLVEIT.DOCKING_TARGET_NAME>
curcumin

>  <BIOSOLVEIT.DOCKING_POSE_NO>
29

>  <BIOSOLVEIT.DOCKING_E_TOTAL>
-15.797000

>  <BIOSOLVEIT.DOCKING_E_MATCH>
-16.392000

>  <BIOSOLVEIT.DOCKING_E_LIPO>
-11.638000

>  <BIOSOLVEIT.DOCKING_E_AMBIG>
-6.228000

>  <BIOSOLVEIT.DOCKING_E_CLASH>
4.662000

>  <BIOSOLVEIT.DOCKING_E_ROT>
8.400000

>  <BIOSOLVEIT.DOCKING_E_PPI>
0.000000

>  <BIOSOLVEIT.DOCKING_E_PLP>
0.000000

>  <BIOSOLVEIT.DOCKING_E_SAS>
0.000000

>  <BIOSOLVEIT.DOCKING_RMS>
4.761000

>  <BIOSOLVEIT.DOCKING_AVG_VOLUME>
0.315000

>  <BIOSOLVEIT.DOCKING_MAX_VOLUME>
2.208000

>  <BIOSOLVEIT.DOCKING_MATCHLIST>
  8;   5.40;   9.83;   3.36;   4.81;  13.09;   7.41; -0.47; -0.47
  8;   5.40;   9.83;   3.36;   6.27;   6.59;   1.50; -0.60; -0.60
  8;   5.40;   9.83;   3.36;   4.60;  13.87;   0.81; -0.70; -0.70
  8;   5.40;   9.83;   3.36;   4.42;  13.22;   4.88; -0.60; -0.60
  7;  16.39;  12.98;   1.85;  12.76;  14.86;   4.96; -0.18; -0.18
  3;  16.33;  14.93;  -0.08;  16.36;  16.84;  -0.58; -4.70; -4.70
  6;   3.00;   9.57;   2.06;   1.81;   8.83;   2.95; -4.20; -4.20
  6;   2.93;   9.86;   1.14;   1.47;  10.10;  -0.55; -3.12; -3.12
  8;   5.40;   9.83;   3.36;   2.63;  12.95;   1.91; -0.70; -0.70
  8;   5.40;   9.83;   3.36;   7.48;   5.94;   3.61; -0.70; -0.70


>  <BIOSOLVEIT.POSEVIEW_INTERACTIONS>
  16.36;  16.84;  -0.58; -4.70;    3;  170;1
   1.81;   8.83;   2.95; -4.20;    6;  699;1
   1.47;  10.10;  -0.55; -3.12;   29;  681;0


>  <BIOSOLVEIT.POSEVIEW_HYDROPHOBIC_CONTACTS>
 27;  187;ALA353
 27;  677;THR413
 27; 1106;LEU467
 27;  288;VAL366
 27;  290;VAL366
 27;  538;LEU397
 26;  171;GLY351
 26;  172;GLY351
 25;  187;ALA353
 25;  141;LEU345
 25;  149;GLY346
 24;  141;LEU345
 24;  148;GLY346
 24;  187;ALA353
 24;  140;LEU345
 24;  143;LEU345
 24; 1107;LEU467
 23;  152;LYS347
 23;  149;GLY346
 23;  148;GLY346
 23;  187;ALA353
 22;  141;LEU345
 22;  140;LEU345
 22;  145;LEU345
 22; 1107;LEU467
 21;  148;GLY346
 21;  153;LYS347
 21;  149;GLY346
 21;  152;LYS347
 20;  149;GLY346
 20;  187;ALA353
 20;  143;LEU345
 20;  140;LEU345
 20;  141;LEU345
 19;  149;GLY346
 19;  187;ALA353
 18;  143;LEU345
 18;  145;LEU345
 18;  146;LEU345
 18;  721;GLY419
 18; 1105;LEU467
 18; 1106;LEU467
 18; 1107;LEU467
 17;  153;LYS347
 16;  145;LEU345
 16; 1106;LEU467
 16; 1107;LEU467
 16;  290;VAL366
 16;  693;TYR415
 16;  695;TYR415
 16;  700;ILE416
 16;  703;ILE416
 16;  704;ILE416
 15;  157;GLY348
 15;  153;LYS347
 14;  187;ALA353
 14;  143;LEU345
 14;  145;LEU345
 14;  289;VAL366
 14; 1106;LEU467
 14; 1107;LEU467
 14;  290;VAL366
 13;  152;LYS347
 13;  172;GLY351
 13;  153;LYS347
 12;  143;LEU345
 12;  145;LEU345
 12; 1106;LEU467
 12; 1107;LEU467
 11;  152;LYS347
 11;  153;LYS347
 10;  145;LEU345
 10;  289;VAL366
 10; 1106;LEU467
 10;  288;VAL366
 10;  693;TYR415
 10;  688;TYR415
 10;  700;ILE416
 10;  703;ILE416
 10;  704;ILE416
 10;  689;TYR415
  9;  157;GLY348
  9;  153;LYS347
  8;  145;LEU345
  8;  289;VAL366
  8; 1106;LEU467
  8;  288;VAL366
  8;  290;VAL366
  7;  153;LYS347
  7;  172;GLY351
  7;  157;GLY348


$$$$
